Version 4
SHEET 1 2712 680
WIRE 944 -416 896 -416
WIRE 944 -384 944 -416
WIRE 944 -384 704 -384
WIRE 1184 -384 944 -384
WIRE 704 -336 704 -384
WIRE 1184 -336 1184 -384
WIRE 704 -208 704 -256
WIRE 704 -208 448 -208
WIRE 1184 -208 1184 -256
WIRE 1440 -208 1184 -208
WIRE 448 -160 448 -208
WIRE 704 -160 704 -208
WIRE 704 -160 656 -160
WIRE 752 -160 704 -160
WIRE 880 -160 832 -160
WIRE 1056 -160 1008 -160
WIRE 1184 -160 1184 -208
WIRE 1184 -160 1136 -160
WIRE 1232 -160 1184 -160
WIRE 1440 -160 1440 -208
WIRE -16 -144 -64 -144
WIRE -16 -112 -16 -144
WIRE -16 -112 -192 -112
WIRE 144 -112 -16 -112
WIRE -192 -96 -192 -112
WIRE 144 -96 144 -112
WIRE 704 -64 704 -160
WIRE 832 -64 816 -64
WIRE 1072 -64 1056 -64
WIRE 1184 -64 1184 -160
WIRE 448 -48 448 -80
WIRE 1440 -48 1440 -80
WIRE -816 -32 -816 -96
WIRE -688 -32 -688 -96
WIRE -528 -32 -528 -96
WIRE 832 -16 832 -64
WIRE 832 -16 768 -16
WIRE 880 -16 1008 -160
WIRE 880 -16 832 -16
WIRE 1008 -16 880 -160
WIRE 1056 -16 1056 -64
WIRE 1056 -16 1008 -16
WIRE 1120 -16 1056 -16
WIRE -192 0 -192 -16
WIRE 144 0 144 -16
WIRE -240 16 -272 16
WIRE 96 16 64 16
WIRE -240 64 -272 64
WIRE 96 64 64 64
WIRE 448 80 448 16
WIRE 704 80 704 32
WIRE 704 80 448 80
WIRE 944 80 704 80
WIRE 1184 80 1184 32
WIRE 1184 80 944 80
WIRE 1440 80 1440 16
WIRE 1440 80 1184 80
WIRE -816 112 -816 48
WIRE -688 112 -688 48
WIRE -528 112 -528 48
WIRE -272 112 -272 64
WIRE 64 112 64 64
WIRE 944 112 944 80
WIRE -192 128 -192 80
WIRE -160 128 -192 128
WIRE 144 128 144 80
WIRE 176 128 144 128
FLAG -816 112 0
FLAG -816 -96 +5V
IOPIN -816 -96 Out
FLAG -64 -144 +5V
IOPIN -64 -144 In
FLAG 944 112 0
FLAG 656 -160 Out_A
IOPIN 656 -160 Out
FLAG 1232 -160 Out_B
IOPIN 1232 -160 Out
FLAG -688 -96 V_EN2
IOPIN -688 -96 Out
FLAG -688 112 0
FLAG -272 16 V_EN1
IOPIN -272 16 In
FLAG -272 112 0
FLAG 64 16 V_EN2
IOPIN 64 16 In
FLAG 64 112 0
FLAG -160 128 E1
IOPIN -160 128 Out
FLAG 176 128 E2
IOPIN 176 128 Out
FLAG 816 -64 E1
IOPIN 816 -64 In
FLAG 1072 -64 E2
IOPIN 1072 -64 In
FLAG -528 -96 V_EN1
IOPIN -528 -96 Out
FLAG -528 112 0
FLAG 896 -416 +5V
IOPIN 896 -416 In
SYMBOL voltage -816 -48 R0
WINDOW 123 0 0 Left 2
WINDOW 39 0 0 Left 2
SYMATTR InstName V1
SYMATTR Value +5V
SYMBOL npn 1120 -64 R0
SYMATTR InstName Q3
SYMATTR Value BC847C
SYMBOL npn 768 -64 M0
SYMATTR InstName Q4
SYMATTR Value BC847C
SYMBOL res 1456 -176 M0
SYMATTR InstName R6
SYMATTR Value 470
SYMBOL sw -192 96 M180
SYMATTR InstName S1
SYMATTR Value MySwitch
SYMBOL voltage -688 -48 R0
WINDOW 3 81 175 VLeft 2
WINDOW 123 0 0 Left 2
WINDOW 39 0 0 Left 2
SYMATTR Value PULSE(0V 2V 600ms 50ns 50ns 200ms 5000ms)
SYMATTR InstName V2
SYMBOL res -208 -112 R0
SYMATTR InstName R1
SYMATTR Value 10k
SYMBOL res 128 -112 R0
SYMATTR InstName R2
SYMATTR Value 10k
SYMBOL res 432 -176 R0
SYMATTR InstName R3
SYMATTR Value 470
SYMBOL LED 432 -48 R0
SYMATTR InstName D1
SYMATTR Value QTLP690C
SYMBOL sw 144 96 M180
SYMATTR InstName S2
SYMATTR Value MySwitch
SYMBOL res 736 -144 R270
WINDOW 0 32 56 VTop 2
WINDOW 3 0 56 VBottom 2
SYMATTR InstName R4
SYMATTR Value 100k
SYMBOL voltage -528 -48 R0
WINDOW 3 80 175 VLeft 2
WINDOW 123 0 0 Left 2
WINDOW 39 0 0 Left 2
SYMATTR Value PULSE(0V 2V 1600ms 50ns 50ns 200ms 5000ms)
SYMATTR InstName V3
SYMBOL res 1152 -176 R90
WINDOW 0 0 56 VBottom 2
WINDOW 3 32 56 VTop 2
SYMATTR InstName R5
SYMATTR Value 100k
SYMBOL LED 1456 -48 M0
SYMATTR InstName D2
SYMATTR Value QTLP690C
SYMBOL res 688 -352 R0
SYMATTR InstName R7
SYMATTR Value 1k
SYMBOL res 1168 -352 R0
SYMATTR InstName R8
SYMATTR Value 1k
TEXT -176 -480 Left 2 !.tran 0 10000m 0 100u
TEXT -288 -432 Left 1 !.model MySwitch SW(Ron=.01 Roff=1G Vt=1.0 Vh=0.5 Lser=10n Vser=0.0)\n \n#---------------------------------------------------------------------------------------------------------------\n# vt: Threshold voltage\n# vh: Hysteresis voltage\n# Ron: On resistance\n# Roff: Off resistance\n# Lser: Series inductance\n# Vser: Series voltage\n# Ilimit: Current limit\n#---------------------------------------------------------------------------------------------------------------\n# Auch zu finden in der Hilfe von LTSpice: F1 -> S. Voltage Controlled\n# Switch\n#---------------------------------------------------------------------------------------------------------------
