Version 4
SHEET 1 2712 680
WIRE 720 -512 672 -512
WIRE 720 -480 720 -512
WIRE 720 -480 480 -480
WIRE 960 -480 720 -480
WIRE 480 -416 480 -480
WIRE 960 -416 960 -480
WIRE 480 -304 480 -336
WIRE 960 -304 960 -336
WIRE 480 -160 480 -240
WIRE 480 -160 432 -160
WIRE 528 -160 480 -160
WIRE 656 -160 608 -160
WIRE 832 -160 784 -160
WIRE 960 -160 960 -240
WIRE 960 -160 912 -160
WIRE 1008 -160 960 -160
WIRE -16 -144 -64 -144
WIRE -16 -112 -16 -144
WIRE -16 -112 -192 -112
WIRE 144 -112 -16 -112
WIRE -192 -96 -192 -112
WIRE 144 -96 144 -112
WIRE 480 -64 480 -160
WIRE 608 -64 592 -64
WIRE 848 -64 832 -64
WIRE 960 -64 960 -160
WIRE -816 -32 -816 -96
WIRE -688 -32 -688 -96
WIRE -528 -32 -528 -96
WIRE 608 -16 608 -64
WIRE 608 -16 544 -16
WIRE 656 -16 784 -160
WIRE 656 -16 608 -16
WIRE 784 -16 656 -160
WIRE 832 -16 832 -64
WIRE 832 -16 784 -16
WIRE 896 -16 832 -16
WIRE -192 0 -192 -16
WIRE 144 0 144 -16
WIRE -240 16 -272 16
WIRE 96 16 64 16
WIRE -240 64 -272 64
WIRE 96 64 64 64
WIRE 480 80 480 32
WIRE 720 80 480 80
WIRE 960 80 960 32
WIRE 960 80 720 80
WIRE -816 112 -816 48
WIRE -688 112 -688 48
WIRE -528 112 -528 48
WIRE -272 112 -272 64
WIRE 64 112 64 64
WIRE 720 112 720 80
WIRE -192 128 -192 80
WIRE -160 128 -192 128
WIRE 144 128 144 80
WIRE 176 128 144 128
FLAG -816 112 0
FLAG -816 -96 +5V
IOPIN -816 -96 Out
FLAG -64 -144 +5V
IOPIN -64 -144 In
FLAG 720 112 0
FLAG 432 -160 Out_A
IOPIN 432 -160 Out
FLAG 1008 -160 Out_B
IOPIN 1008 -160 Out
FLAG -688 -96 V_EN2
IOPIN -688 -96 Out
FLAG -688 112 0
FLAG -272 16 V_EN1
IOPIN -272 16 In
FLAG -272 112 0
FLAG 64 16 V_EN2
IOPIN 64 16 In
FLAG 64 112 0
FLAG -160 128 E1
IOPIN -160 128 Out
FLAG 176 128 E2
IOPIN 176 128 Out
FLAG 592 -64 E1
IOPIN 592 -64 In
FLAG 848 -64 E2
IOPIN 848 -64 In
FLAG -528 -96 V_EN1
IOPIN -528 -96 Out
FLAG -528 112 0
FLAG 672 -512 +5V
IOPIN 672 -512 In
SYMBOL voltage -816 -48 R0
WINDOW 123 0 0 Left 2
WINDOW 39 0 0 Left 2
SYMATTR InstName V1
SYMATTR Value +5V
SYMBOL npn 896 -64 R0
SYMATTR InstName Q3
SYMATTR Value BC847C
SYMBOL npn 544 -64 M0
SYMATTR InstName Q4
SYMATTR Value BC847C
SYMBOL res 976 -432 M0
SYMATTR InstName R6
SYMATTR Value 470
SYMBOL sw -192 96 M180
SYMATTR InstName S1
SYMATTR Value MySwitch
SYMBOL voltage -688 -48 R0
WINDOW 3 81 175 VLeft 2
WINDOW 123 0 0 Left 2
WINDOW 39 0 0 Left 2
SYMATTR Value PULSE(0V 2V 600ms 50ns 50ns 200ms 5000ms)
SYMATTR InstName V2
SYMBOL res -208 -112 R0
SYMATTR InstName R1
SYMATTR Value 10k
SYMBOL res 128 -112 R0
SYMATTR InstName R2
SYMATTR Value 10k
SYMBOL res 464 -432 R0
SYMATTR InstName R3
SYMATTR Value 470
SYMBOL LED 464 -304 R0
SYMATTR InstName D1
SYMATTR Value QTLP690C
SYMBOL sw 144 96 M180
SYMATTR InstName S2
SYMATTR Value MySwitch
SYMBOL res 512 -144 R270
WINDOW 0 32 56 VTop 2
WINDOW 3 0 56 VBottom 2
SYMATTR InstName R4
SYMATTR Value 100k
SYMBOL voltage -528 -48 R0
WINDOW 3 80 175 VLeft 2
WINDOW 123 0 0 Left 2
WINDOW 39 0 0 Left 2
SYMATTR Value PULSE(0V 2V 1600ms 50ns 50ns 200ms 5000ms)
SYMATTR InstName V3
SYMBOL res 928 -176 R90
WINDOW 0 0 56 VBottom 2
WINDOW 3 32 56 VTop 2
SYMATTR InstName R5
SYMATTR Value 100k
SYMBOL LED 976 -304 M0
SYMATTR InstName D2
SYMATTR Value QTLP690C
TEXT -152 -504 Left 2 !.tran 0 10000m 0 100u
TEXT -288 -432 Left 1 !.model MySwitch SW(Ron=.01 Roff=1G Vt=1.0 Vh=0.5 Lser=10n Vser=0.0)\n \n#---------------------------------------------------------------------------------------------------------------\n# vt: Threshold voltage\n# vh: Hysteresis voltage\n# Ron: On resistance\n# Roff: Off resistance\n# Lser: Series inductance\n# Vser: Series voltage\n# Ilimit: Current limit\n#---------------------------------------------------------------------------------------------------------------\n# Auch zu finden in der Hilfe von LTSpice: F1 -> S. Voltage Controlled\n# Switch\n#---------------------------------------------------------------------------------------------------------------
