Version 4
SHEET 1 1988 680
WIRE 592 -400 512 -400
WIRE 832 -400 592 -400
WIRE 1008 -400 832 -400
WIRE 1184 -400 1008 -400
WIRE 528 -336 512 -336
WIRE 832 -336 832 -400
WIRE 1008 -336 1008 -400
WIRE 1184 -336 1184 -400
WIRE 592 -320 592 -400
WIRE 528 -304 528 -336
WIRE 544 -304 528 -304
WIRE 544 -256 528 -256
WIRE 528 -224 528 -256
WIRE 592 -208 592 -240
WIRE 832 -208 832 -272
WIRE 1008 -208 1008 -272
WIRE 1184 -208 1184 -272
WIRE 592 -112 592 -128
WIRE 832 -64 832 -128
WIRE 1008 -64 1008 -128
WIRE 1008 -64 832 -64
WIRE 1184 -64 1184 -128
WIRE 1184 -64 1008 -64
WIRE 592 -16 592 -32
WIRE 752 -16 592 -16
WIRE 832 -16 832 -64
WIRE 848 -16 832 -16
WIRE 592 0 592 -16
WIRE 832 0 832 -16
WIRE 224 64 224 -16
WIRE 336 64 336 -16
WIRE 752 80 752 -16
WIRE 752 80 736 80
WIRE 784 80 752 80
WIRE 592 96 592 80
WIRE 832 112 832 96
WIRE 848 112 832 112
WIRE 224 208 224 144
WIRE 336 208 336 144
WIRE 592 208 592 176
WIRE 832 208 832 112
FLAG 224 -16 +5V
IOPIN 224 -16 Out
FLAG 336 -16 V_EN
IOPIN 336 -16 Out
FLAG 224 208 0
FLAG 336 208 0
FLAG 512 -336 V_EN
IOPIN 512 -336 In
FLAG 528 -224 0
FLAG 832 208 0
FLAG 512 -400 +5V
IOPIN 512 -400 In
FLAG 592 208 0
FLAG 848 -16 D
FLAG 848 112 S
FLAG 736 80 G
SYMBOL nmos 784 0 R0
SYMATTR InstName M1
SYMATTR Value Si5515_N
SYMBOL LED 816 -336 R0
SYMATTR InstName D1
SYMATTR Value LXHL-BW02
SYMATTR Description Diode
SYMATTR Type diode
SYMBOL LED 992 -336 R0
SYMATTR InstName D2
SYMATTR Value LXHL-BW02
SYMATTR Description Diode
SYMATTR Type diode
SYMBOL LED 1168 -336 R0
SYMATTR InstName D3
SYMATTR Value LXHL-BW02
SYMATTR Description Diode
SYMATTR Type diode
SYMBOL res 816 -224 R0
SYMATTR InstName R1
SYMATTR Value 47
SYMBOL res 992 -224 R0
SYMATTR InstName R2
SYMATTR Value 47
SYMBOL res 1168 -224 R0
SYMATTR InstName R3
SYMATTR Value 47
SYMBOL voltage 224 48 R0
WINDOW 123 0 0 Left 2
WINDOW 39 0 0 Left 2
SYMATTR InstName V1
SYMATTR Value 5V
SYMBOL voltage 336 48 R0
WINDOW 3 83 183 VLeft 2
WINDOW 123 0 0 Left 2
WINDOW 39 0 0 Left 2
SYMATTR Value PULSE(0 2 10ms 50ns 50ns 100ms 150ms 2)
SYMATTR InstName V2
SYMBOL sw 592 -224 M180
SYMATTR InstName S1
SYMATTR Value MySwitch
SYMBOL res 576 80 R0
SYMATTR InstName R4
SYMATTR Value 10k
SYMBOL res 576 -224 R0
SYMATTR InstName R5
SYMATTR Value 100k
SYMBOL res 576 -128 R0
SYMATTR InstName R6
SYMATTR Value R=RA
SYMBOL res 576 -16 R0
SYMATTR InstName R7
SYMATTR Value R=RB
TEXT -360 -240 Left 1 !.model MySwitch SW(Ron=.01 Roff=1G Vt=1.0 Vh=0.5 Lser=10n Vser=0.0)\n \n#-----------------------------------------------------------------------------------------------\n# vt: Threshold voltage\n# vh: Hysteresis voltage\n# Ron: On resistance\n# Roff: Off resistance\n# Lser: Series inductance\n# Vser: Series voltage\n# Ilimit: Current limit\n#-----------------------------------------------------------------------------------------------\n# Auch zu finden in der Hilfe von LTSpice: F1 -> S. Voltage Controlled\n# Switch\n#-----------------------------------------------------------------------------------------------
TEXT -368 184 Left 2 !.tran 320ms
TEXT -368 56 Left 2 !.param WIPER=80\n.param RT=100k\n.param RA=((RT*WIPER)/100)+1\n.param RB=((RT*(100-WIPER))/100)
